.SUBCKT  0412CDMCCDS_R10MC 1 2
L1 1 11 0.10u
C1 1 11 0.9453p
R1 1 11 0.3084k
R2 2 11 5.86m
.ENDS
