.SUBCKT 0412CDMCCDS_R15MC 1 2
L1 1 11 0.15u
C1 1 11 1.8380p
R1 1 11 0.6189k
R2 2 11 8.32m
.ENDS
