.SUBCKT 104CDMCCDS_4R7MC 1 2
L1 1 11 4.7u
C1 1 11 21.5859p
R1 1 11 8.3694k
R2 2 11 12.7m
.ENDS
